WARNING: physical memory size is smaller than virtual memory size.

*** ChampSim Multicore Out-of-Order Simulator ***
Warmup Instructions: 20000000
Simulation Instructions: 100000000
Number of CPUs: 1
Page size: 4096

Off-chip DRAM Size: 4 GiB Channels: 1 Width: 64-bit Data Race: 3200 MT/s
Heartbeat CPU 0 instructions: 10000003 cycles: 2511646 heartbeat IPC: 3.981 cumulative IPC: 3.981 (Simulation time: 00 hr 00 min 23 sec)
Heartbeat CPU 0 instructions: 20000001 cycles: 5067400 heartbeat IPC: 3.913 cumulative IPC: 3.947 (Simulation time: 00 hr 00 min 48 sec)
Warmup finished CPU 0 instructions: 20000001 cycles: 5067401 cumulative IPC: 3.947 (Simulation time: 00 hr 00 min 48 sec)
Warmup complete CPU 0 instructions: 20000001 cycles: 5067401 cumulative IPC: 3.947 (Simulation time: 00 hr 00 min 48 sec)
Heartbeat CPU 0 instructions: 30000002 cycles: 15585515 heartbeat IPC: 0.9507 cumulative IPC: 0.9507 (Simulation time: 00 hr 02 min 00 sec)
Heartbeat CPU 0 instructions: 40000001 cycles: 25925587 heartbeat IPC: 0.9671 cumulative IPC: 0.9589 (Simulation time: 00 hr 03 min 08 sec)
Heartbeat CPU 0 instructions: 50000002 cycles: 35992295 heartbeat IPC: 0.9934 cumulative IPC: 0.9701 (Simulation time: 00 hr 04 min 14 sec)
Heartbeat CPU 0 instructions: 60000002 cycles: 42938350 heartbeat IPC: 1.44 cumulative IPC: 1.056 (Simulation time: 00 hr 05 min 07 sec)
Heartbeat CPU 0 instructions: 70000003 cycles: 53470158 heartbeat IPC: 0.9495 cumulative IPC: 1.033 (Simulation time: 00 hr 06 min 16 sec)
Heartbeat CPU 0 instructions: 80000000 cycles: 63892040 heartbeat IPC: 0.9595 cumulative IPC: 1.02 (Simulation time: 00 hr 07 min 23 sec)
Heartbeat CPU 0 instructions: 90000000 cycles: 74039352 heartbeat IPC: 0.9855 cumulative IPC: 1.015 (Simulation time: 00 hr 08 min 28 sec)
Heartbeat CPU 0 instructions: 100000003 cycles: 80858356 heartbeat IPC: 1.466 cumulative IPC: 1.056 (Simulation time: 00 hr 09 min 20 sec)
Heartbeat CPU 0 instructions: 110000001 cycles: 91417203 heartbeat IPC: 0.9471 cumulative IPC: 1.042 (Simulation time: 00 hr 10 min 28 sec)
Heartbeat CPU 0 instructions: 120000000 cycles: 101884720 heartbeat IPC: 0.9553 cumulative IPC: 1.033 (Simulation time: 00 hr 11 min 38 sec)
Simulation finished CPU 0 instructions: 100000004 cycles: 96817321 cumulative IPC: 1.033 (Simulation time: 00 hr 11 min 38 sec)
Simulation complete CPU 0 instructions: 100000004 cycles: 96817321 cumulative IPC: 1.033 (Simulation time: 00 hr 11 min 38 sec)

ChampSim completed all CPUs

=== Simulation ===
CPU 0 runs cactusADM_734B.trace.xz
Region of Interest Statistics

CPU 0 cumulative IPC: 1.033 instructions: 100000004 cycles: 96817321
CPU 0 Branch Prediction Accuracy: 98.22% MPKI: 0.03738 Average ROB Occupancy at Mispredict: 276.3
Branch type MPKI
BRANCH_DIRECT_JUMP: 0
BRANCH_INDIRECT: 0
BRANCH_CONDITIONAL: 0.0374
BRANCH_DIRECT_CALL: 0
BRANCH_INDIRECT_CALL: 0
BRANCH_RETURN: 0

LLC TOTAL        ACCESS:    1208918 HIT:     268053 MISS:     940865
LLC LOAD         ACCESS:     635372 HIT:        121 MISS:     635251
LLC RFO          ACCESS:     268110 HIT:        118 MISS:     267992
LLC PREFETCH     ACCESS:          0 HIT:          0 MISS:          0
LLC WRITE        ACCESS:     268105 HIT:     267794 MISS:        311
LLC TRANSLATION  ACCESS:      37331 HIT:         20 MISS:      37311
LLC PREFETCH REQUESTED:          0 ISSUED:          0 USEFUL:          0 USELESS:          0
LLC AVERAGE MISS LATENCY: 567.2 cycles
cpu0_DTLB TOTAL        ACCESS:   21358715 HIT:   19323196 MISS:    2035519
cpu0_DTLB LOAD         ACCESS:   21358715 HIT:   19323196 MISS:    2035519
cpu0_DTLB RFO          ACCESS:          0 HIT:          0 MISS:          0
cpu0_DTLB PREFETCH     ACCESS:          0 HIT:          0 MISS:          0
cpu0_DTLB WRITE        ACCESS:          0 HIT:          0 MISS:          0
cpu0_DTLB TRANSLATION  ACCESS:          0 HIT:          0 MISS:          0
cpu0_DTLB PREFETCH REQUESTED:          0 ISSUED:          0 USEFUL:          0 USELESS:          0
cpu0_DTLB AVERAGE MISS LATENCY: 25.3 cycles
cpu0_ITLB TOTAL        ACCESS:   11354763 HIT:   11354763 MISS:          0
cpu0_ITLB LOAD         ACCESS:   11354763 HIT:   11354763 MISS:          0
cpu0_ITLB RFO          ACCESS:          0 HIT:          0 MISS:          0
cpu0_ITLB PREFETCH     ACCESS:          0 HIT:          0 MISS:          0
cpu0_ITLB WRITE        ACCESS:          0 HIT:          0 MISS:          0
cpu0_ITLB TRANSLATION  ACCESS:          0 HIT:          0 MISS:          0
cpu0_ITLB PREFETCH REQUESTED:          0 ISSUED:          0 USEFUL:          0 USELESS:          0
cpu0_ITLB AVERAGE MISS LATENCY: -nan cycles
cpu0_L1D TOTAL        ACCESS:   33497635 HIT:   30876443 MISS:    2621192
cpu0_L1D LOAD         ACCESS:   20670542 HIT:   19445952 MISS:    1224590
cpu0_L1D RFO          ACCESS:          0 HIT:          0 MISS:          0
cpu0_L1D PREFETCH     ACCESS:          0 HIT:          0 MISS:          0
cpu0_L1D WRITE        ACCESS:   11673344 HIT:   10452438 MISS:    1220906
cpu0_L1D TRANSLATION  ACCESS:    1153749 HIT:     978053 MISS:     175696
cpu0_L1D PREFETCH REQUESTED:          0 ISSUED:          0 USEFUL:          0 USELESS:          0
cpu0_L1D AVERAGE MISS LATENCY: 194.8 cycles
cpu0_L1I TOTAL        ACCESS:   16772385 HIT:   16772385 MISS:          0
cpu0_L1I LOAD         ACCESS:   16772385 HIT:   16772385 MISS:          0
cpu0_L1I RFO          ACCESS:          0 HIT:          0 MISS:          0
cpu0_L1I PREFETCH     ACCESS:          0 HIT:          0 MISS:          0
cpu0_L1I WRITE        ACCESS:          0 HIT:          0 MISS:          0
cpu0_L1I TRANSLATION  ACCESS:          0 HIT:          0 MISS:          0
cpu0_L1I PREFETCH REQUESTED:          0 ISSUED:          0 USEFUL:          0 USELESS:          0
cpu0_L1I AVERAGE MISS LATENCY: -nan cycles
cpu0_L2C TOTAL        ACCESS:    1784594 HIT:     843455 MISS:     941139
cpu0_L2C LOAD         ACCESS:    1063769 HIT:     428397 MISS:     635372
cpu0_L2C RFO          ACCESS:     271519 HIT:       3409 MISS:     268110
cpu0_L2C PREFETCH     ACCESS:          0 HIT:          0 MISS:          0
cpu0_L2C WRITE        ACCESS:     275969 HIT:     275643 MISS:        326
cpu0_L2C TRANSLATION  ACCESS:     173337 HIT:     136006 MISS:      37331
cpu0_L2C PREFETCH REQUESTED:          0 ISSUED:          0 USEFUL:          0 USELESS:          0
cpu0_L2C AVERAGE MISS LATENCY: 588.1 cycles
cpu0_STLB TOTAL        ACCESS:    1602763 HIT:     993318 MISS:     609445
cpu0_STLB LOAD         ACCESS:    1602763 HIT:     993318 MISS:     609445
cpu0_STLB RFO          ACCESS:          0 HIT:          0 MISS:          0
cpu0_STLB PREFETCH     ACCESS:          0 HIT:          0 MISS:          0
cpu0_STLB WRITE        ACCESS:          0 HIT:          0 MISS:          0
cpu0_STLB TRANSLATION  ACCESS:          0 HIT:          0 MISS:          0
cpu0_STLB PREFETCH REQUESTED:          0 ISSUED:          0 USEFUL:          0 USELESS:          0
cpu0_STLB AVERAGE MISS LATENCY: 75.29 cycles

DRAM Statistics

Channel 0 RQ ROW_BUFFER_HIT:     175299
  ROW_BUFFER_MISS:     765255
 AVG DBUS CONGESTED CYCLE: 3.953
WQ ROW_BUFFER_HIT: Channel 0 
  ROW_BUFFER_MISS:      16569
  FULL:     249467
