WARNING: physical memory size is smaller than virtual memory size.

*** ChampSim Multicore Out-of-Order Simulator ***
Warmup Instructions: 20000000
Simulation Instructions: 100000000
Number of CPUs: 1
Page size: 4096

Off-chip DRAM Size: 4 GiB Channels: 1 Width: 64-bit Data Race: 3200 MT/s
Heartbeat CPU 0 instructions: 10000004 cycles: 2512197 heartbeat IPC: 3.981 cumulative IPC: 3.981 (Simulation time: 00 hr 00 min 23 sec)
Heartbeat CPU 0 instructions: 20000001 cycles: 5070478 heartbeat IPC: 3.909 cumulative IPC: 3.944 (Simulation time: 00 hr 00 min 47 sec)
Warmup finished CPU 0 instructions: 20000001 cycles: 5070479 cumulative IPC: 3.944 (Simulation time: 00 hr 00 min 47 sec)
Warmup complete CPU 0 instructions: 20000001 cycles: 5070479 cumulative IPC: 3.944 (Simulation time: 00 hr 00 min 47 sec)
Heartbeat CPU 0 instructions: 30000002 cycles: 15420634 heartbeat IPC: 0.9662 cumulative IPC: 0.9662 (Simulation time: 00 hr 01 min 51 sec)
Heartbeat CPU 0 instructions: 40000001 cycles: 25528987 heartbeat IPC: 0.9893 cumulative IPC: 0.9776 (Simulation time: 00 hr 02 min 54 sec)
Heartbeat CPU 0 instructions: 50000002 cycles: 35405157 heartbeat IPC: 1.013 cumulative IPC: 0.989 (Simulation time: 00 hr 03 min 57 sec)
Heartbeat CPU 0 instructions: 60000002 cycles: 42265051 heartbeat IPC: 1.458 cumulative IPC: 1.075 (Simulation time: 00 hr 04 min 46 sec)
Heartbeat CPU 0 instructions: 70000003 cycles: 52659189 heartbeat IPC: 0.9621 cumulative IPC: 1.051 (Simulation time: 00 hr 05 min 50 sec)
Heartbeat CPU 0 instructions: 80000000 cycles: 62832279 heartbeat IPC: 0.983 cumulative IPC: 1.039 (Simulation time: 00 hr 06 min 54 sec)
Heartbeat CPU 0 instructions: 90000000 cycles: 72780646 heartbeat IPC: 1.005 cumulative IPC: 1.034 (Simulation time: 00 hr 07 min 56 sec)
Heartbeat CPU 0 instructions: 100000003 cycles: 79495725 heartbeat IPC: 1.489 cumulative IPC: 1.075 (Simulation time: 00 hr 08 min 44 sec)
Heartbeat CPU 0 instructions: 110000001 cycles: 89857126 heartbeat IPC: 0.9651 cumulative IPC: 1.061 (Simulation time: 00 hr 09 min 48 sec)
Heartbeat CPU 0 instructions: 120000000 cycles: 100084832 heartbeat IPC: 0.9777 cumulative IPC: 1.052 (Simulation time: 00 hr 10 min 52 sec)
Simulation finished CPU 0 instructions: 100000004 cycles: 95014355 cumulative IPC: 1.052 (Simulation time: 00 hr 10 min 52 sec)
Simulation complete CPU 0 instructions: 100000004 cycles: 95014355 cumulative IPC: 1.052 (Simulation time: 00 hr 10 min 52 sec)

ChampSim completed all CPUs

=== Simulation ===
CPU 0 runs cactusADM_734B.trace.xz
Region of Interest Statistics

CPU 0 cumulative IPC: 1.052 instructions: 100000004 cycles: 95014355
CPU 0 Branch Prediction Accuracy: 98.22% MPKI: 0.03738 Average ROB Occupancy at Mispredict: 276.7
Branch type MPKI
BRANCH_DIRECT_JUMP: 0
BRANCH_INDIRECT: 0
BRANCH_CONDITIONAL: 0.0374
BRANCH_DIRECT_CALL: 0
BRANCH_INDIRECT_CALL: 0
BRANCH_RETURN: 0

LLC TOTAL        ACCESS:    1198183 HIT:     268124 MISS:     930059
LLC LOAD         ACCESS:     635341 HIT:         24 MISS:     635317
LLC RFO          ACCESS:     268109 HIT:        114 MISS:     267995
LLC PREFETCH     ACCESS:          0 HIT:          0 MISS:          0
LLC WRITE        ACCESS:     268199 HIT:     267909 MISS:        290
LLC TRANSLATION  ACCESS:      26534 HIT:         77 MISS:      26457
LLC PREFETCH REQUESTED:          0 ISSUED:          0 USEFUL:          0 USELESS:          0
LLC AVERAGE MISS LATENCY: 557.6 cycles
cpu0_DTLB TOTAL        ACCESS:   21346879 HIT:   19304531 MISS:    2042348
cpu0_DTLB LOAD         ACCESS:   21346879 HIT:   19304531 MISS:    2042348
cpu0_DTLB RFO          ACCESS:          0 HIT:          0 MISS:          0
cpu0_DTLB PREFETCH     ACCESS:          0 HIT:          0 MISS:          0
cpu0_DTLB WRITE        ACCESS:          0 HIT:          0 MISS:          0
cpu0_DTLB TRANSLATION  ACCESS:          0 HIT:          0 MISS:          0
cpu0_DTLB PREFETCH REQUESTED:          0 ISSUED:          0 USEFUL:          0 USELESS:          0
cpu0_DTLB AVERAGE MISS LATENCY: 22.88 cycles
cpu0_ITLB TOTAL        ACCESS:   11347717 HIT:   11347717 MISS:          0
cpu0_ITLB LOAD         ACCESS:   11347717 HIT:   11347717 MISS:          0
cpu0_ITLB RFO          ACCESS:          0 HIT:          0 MISS:          0
cpu0_ITLB PREFETCH     ACCESS:          0 HIT:          0 MISS:          0
cpu0_ITLB WRITE        ACCESS:          0 HIT:          0 MISS:          0
cpu0_ITLB TRANSLATION  ACCESS:          0 HIT:          0 MISS:          0
cpu0_ITLB PREFETCH REQUESTED:          0 ISSUED:          0 USEFUL:          0 USELESS:          0
cpu0_ITLB AVERAGE MISS LATENCY: -nan cycles
cpu0_L1D TOTAL        ACCESS:   33552727 HIT:   31030129 MISS:    2522598
cpu0_L1D LOAD         ACCESS:   20641264 HIT:   19422907 MISS:    1218357
cpu0_L1D RFO          ACCESS:          0 HIT:          0 MISS:          0
cpu0_L1D PREFETCH     ACCESS:          0 HIT:          0 MISS:          0
cpu0_L1D WRITE        ACCESS:   11673308 HIT:   10452137 MISS:    1221171
cpu0_L1D TRANSLATION  ACCESS:    1238155 HIT:    1155085 MISS:      83070
cpu0_L1D PREFETCH REQUESTED:          0 ISSUED:          0 USEFUL:          0 USELESS:          0
cpu0_L1D AVERAGE MISS LATENCY: 196.1 cycles
cpu0_L1I TOTAL        ACCESS:   16767465 HIT:   16767465 MISS:          0
cpu0_L1I LOAD         ACCESS:   16767465 HIT:   16767465 MISS:          0
cpu0_L1I RFO          ACCESS:          0 HIT:          0 MISS:          0
cpu0_L1I PREFETCH     ACCESS:          0 HIT:          0 MISS:          0
cpu0_L1I WRITE        ACCESS:          0 HIT:          0 MISS:          0
cpu0_L1I TRANSLATION  ACCESS:          0 HIT:          0 MISS:          0
cpu0_L1I PREFETCH REQUESTED:          0 ISSUED:          0 USEFUL:          0 USELESS:          0
cpu0_L1I AVERAGE MISS LATENCY: -nan cycles
cpu0_L2C TOTAL        ACCESS:    1679983 HIT:     749704 MISS:     930279
cpu0_L2C LOAD         ACCESS:    1057250 HIT:     421909 MISS:     635341
cpu0_L2C RFO          ACCESS:     268992 HIT:        883 MISS:     268109
cpu0_L2C PREFETCH     ACCESS:          0 HIT:          0 MISS:          0
cpu0_L2C WRITE        ACCESS:     273136 HIT:     272841 MISS:        295
cpu0_L2C TRANSLATION  ACCESS:      80605 HIT:      54071 MISS:      26534
cpu0_L2C PREFETCH REQUESTED:          0 ISSUED:          0 USEFUL:          0 USELESS:          0
cpu0_L2C AVERAGE MISS LATENCY: 578.5 cycles
cpu0_STLB TOTAL        ACCESS:    1618326 HIT:     975155 MISS:     643171
cpu0_STLB LOAD         ACCESS:    1618326 HIT:     975155 MISS:     643171
cpu0_STLB RFO          ACCESS:          0 HIT:          0 MISS:          0
cpu0_STLB PREFETCH     ACCESS:          0 HIT:          0 MISS:          0
cpu0_STLB WRITE        ACCESS:          0 HIT:          0 MISS:          0
cpu0_STLB TRANSLATION  ACCESS:          0 HIT:          0 MISS:          0
cpu0_STLB PREFETCH REQUESTED:          0 ISSUED:          0 USEFUL:          0 USELESS:          0
cpu0_STLB AVERAGE MISS LATENCY: 60.8 cycles

DRAM Statistics

Channel 0 RQ ROW_BUFFER_HIT:     204615
  ROW_BUFFER_MISS:     725154
 AVG DBUS CONGESTED CYCLE: 3.949
WQ ROW_BUFFER_HIT: Channel 0 
  ROW_BUFFER_MISS:      18987
  FULL:     247167
