WARNING: physical memory size is smaller than virtual memory size.

*** ChampSim Multicore Out-of-Order Simulator ***
Warmup Instructions: 20000000
Simulation Instructions: 100000000
Number of CPUs: 1
Page size: 4096

Off-chip DRAM Size: 4 GiB Channels: 1 Width: 64-bit Data Race: 3200 MT/s
Heartbeat CPU 0 instructions: 10000001 cycles: 2514157 heartbeat IPC: 3.977 cumulative IPC: 3.977 (Simulation time: 00 hr 00 min 23 sec)
Heartbeat CPU 0 instructions: 20000001 cycles: 5080759 heartbeat IPC: 3.896 cumulative IPC: 3.936 (Simulation time: 00 hr 00 min 47 sec)
Warmup finished CPU 0 instructions: 20000001 cycles: 5080760 cumulative IPC: 3.936 (Simulation time: 00 hr 00 min 47 sec)
Warmup complete CPU 0 instructions: 20000001 cycles: 5080760 cumulative IPC: 3.936 (Simulation time: 00 hr 00 min 47 sec)
Heartbeat CPU 0 instructions: 30000002 cycles: 15278523 heartbeat IPC: 0.9806 cumulative IPC: 0.9806 (Simulation time: 00 hr 01 min 51 sec)
Heartbeat CPU 0 instructions: 40000001 cycles: 25305262 heartbeat IPC: 0.9973 cumulative IPC: 0.9889 (Simulation time: 00 hr 02 min 57 sec)
Heartbeat CPU 0 instructions: 50000002 cycles: 35062861 heartbeat IPC: 1.025 cumulative IPC: 1.001 (Simulation time: 00 hr 04 min 00 sec)
Heartbeat CPU 0 instructions: 60000002 cycles: 41905475 heartbeat IPC: 1.461 cumulative IPC: 1.086 (Simulation time: 00 hr 04 min 49 sec)
Heartbeat CPU 0 instructions: 70000003 cycles: 52114845 heartbeat IPC: 0.9795 cumulative IPC: 1.063 (Simulation time: 00 hr 05 min 58 sec)
Heartbeat CPU 0 instructions: 80000000 cycles: 62192550 heartbeat IPC: 0.9923 cumulative IPC: 1.051 (Simulation time: 00 hr 07 min 10 sec)
Heartbeat CPU 0 instructions: 90000000 cycles: 72009651 heartbeat IPC: 1.019 cumulative IPC: 1.046 (Simulation time: 00 hr 08 min 20 sec)
Heartbeat CPU 0 instructions: 100000003 cycles: 78743026 heartbeat IPC: 1.485 cumulative IPC: 1.086 (Simulation time: 00 hr 09 min 15 sec)
Heartbeat CPU 0 instructions: 110000001 cycles: 89031666 heartbeat IPC: 0.9719 cumulative IPC: 1.072 (Simulation time: 00 hr 10 min 28 sec)
Heartbeat CPU 0 instructions: 120000000 cycles: 99247315 heartbeat IPC: 0.9789 cumulative IPC: 1.062 (Simulation time: 00 hr 11 min 40 sec)
Simulation finished CPU 0 instructions: 100000003 cycles: 94166557 cumulative IPC: 1.062 (Simulation time: 00 hr 11 min 40 sec)
Simulation complete CPU 0 instructions: 100000003 cycles: 94166557 cumulative IPC: 1.062 (Simulation time: 00 hr 11 min 40 sec)

ChampSim completed all CPUs

=== Simulation ===
CPU 0 runs cactusADM_734B.trace.xz
Region of Interest Statistics

CPU 0 cumulative IPC: 1.062 instructions: 100000003 cycles: 94166557
CPU 0 Branch Prediction Accuracy: 98.22% MPKI: 0.03738 Average ROB Occupancy at Mispredict: 276.8
Branch type MPKI
BRANCH_DIRECT_JUMP: 0
BRANCH_INDIRECT: 0
BRANCH_CONDITIONAL: 0.0374
BRANCH_DIRECT_CALL: 0
BRANCH_INDIRECT_CALL: 0
BRANCH_RETURN: 0

LLC TOTAL        ACCESS:    1189531 HIT:     268297 MISS:     921234
LLC LOAD         ACCESS:     635340 HIT:         17 MISS:     635323
LLC RFO          ACCESS:     268102 HIT:         41 MISS:     268061
LLC PREFETCH     ACCESS:          0 HIT:          0 MISS:          0
LLC WRITE        ACCESS:     268389 HIT:     268091 MISS:        298
LLC TRANSLATION  ACCESS:      17700 HIT:        148 MISS:      17552
LLC PREFETCH REQUESTED:          0 ISSUED:          0 USEFUL:          0 USELESS:          0
LLC AVERAGE MISS LATENCY: 548.6 cycles
cpu0_DTLB TOTAL        ACCESS:   21305962 HIT:   19263597 MISS:    2042365
cpu0_DTLB LOAD         ACCESS:   21305962 HIT:   19263597 MISS:    2042365
cpu0_DTLB RFO          ACCESS:          0 HIT:          0 MISS:          0
cpu0_DTLB PREFETCH     ACCESS:          0 HIT:          0 MISS:          0
cpu0_DTLB WRITE        ACCESS:          0 HIT:          0 MISS:          0
cpu0_DTLB TRANSLATION  ACCESS:          0 HIT:          0 MISS:          0
cpu0_DTLB PREFETCH REQUESTED:          0 ISSUED:          0 USEFUL:          0 USELESS:          0
cpu0_DTLB AVERAGE MISS LATENCY: 21.54 cycles
cpu0_ITLB TOTAL        ACCESS:   11382278 HIT:   11382278 MISS:          0
cpu0_ITLB LOAD         ACCESS:   11382278 HIT:   11382278 MISS:          0
cpu0_ITLB RFO          ACCESS:          0 HIT:          0 MISS:          0
cpu0_ITLB PREFETCH     ACCESS:          0 HIT:          0 MISS:          0
cpu0_ITLB WRITE        ACCESS:          0 HIT:          0 MISS:          0
cpu0_ITLB TRANSLATION  ACCESS:          0 HIT:          0 MISS:          0
cpu0_ITLB PREFETCH REQUESTED:          0 ISSUED:          0 USEFUL:          0 USELESS:          0
cpu0_ITLB AVERAGE MISS LATENCY: -nan cycles
cpu0_L1D TOTAL        ACCESS:   33842918 HIT:   31360664 MISS:    2482254
cpu0_L1D LOAD         ACCESS:   20512961 HIT:   19297148 MISS:    1215813
cpu0_L1D RFO          ACCESS:          0 HIT:          0 MISS:          0
cpu0_L1D PREFETCH     ACCESS:          0 HIT:          0 MISS:          0
cpu0_L1D WRITE        ACCESS:   11673292 HIT:   10442392 MISS:    1230900
cpu0_L1D TRANSLATION  ACCESS:    1656665 HIT:    1621124 MISS:      35541
cpu0_L1D PREFETCH REQUESTED:          0 ISSUED:          0 USEFUL:          0 USELESS:          0
cpu0_L1D AVERAGE MISS LATENCY: 193.8 cycles
cpu0_L1I TOTAL        ACCESS:   16800577 HIT:   16800577 MISS:          0
cpu0_L1I LOAD         ACCESS:   16800577 HIT:   16800577 MISS:          0
cpu0_L1I RFO          ACCESS:          0 HIT:          0 MISS:          0
cpu0_L1I PREFETCH     ACCESS:          0 HIT:          0 MISS:          0
cpu0_L1I WRITE        ACCESS:          0 HIT:          0 MISS:          0
cpu0_L1I TRANSLATION  ACCESS:          0 HIT:          0 MISS:          0
cpu0_L1I PREFETCH REQUESTED:          0 ISSUED:          0 USEFUL:          0 USELESS:          0
cpu0_L1I AVERAGE MISS LATENCY: -nan cycles
cpu0_L2C TOTAL        ACCESS:    1633520 HIT:     712077 MISS:     921443
cpu0_L2C LOAD         ACCESS:    1058067 HIT:     422727 MISS:     635340
cpu0_L2C RFO          ACCESS:     268149 HIT:         47 MISS:     268102
cpu0_L2C PREFETCH     ACCESS:          0 HIT:          0 MISS:          0
cpu0_L2C WRITE        ACCESS:     271952 HIT:     271651 MISS:        301
cpu0_L2C TRANSLATION  ACCESS:      35352 HIT:      17652 MISS:      17700
cpu0_L2C PREFETCH REQUESTED:          0 ISSUED:          0 USEFUL:          0 USELESS:          0
cpu0_L2C AVERAGE MISS LATENCY: 569.5 cycles
cpu0_STLB TOTAL        ACCESS:    1625519 HIT:    1008638 MISS:     616881
cpu0_STLB LOAD         ACCESS:    1625519 HIT:    1008638 MISS:     616881
cpu0_STLB RFO          ACCESS:          0 HIT:          0 MISS:          0
cpu0_STLB PREFETCH     ACCESS:          0 HIT:          0 MISS:          0
cpu0_STLB WRITE        ACCESS:          0 HIT:          0 MISS:          0
cpu0_STLB TRANSLATION  ACCESS:          0 HIT:          0 MISS:          0
cpu0_STLB PREFETCH REQUESTED:          0 ISSUED:          0 USEFUL:          0 USELESS:          0
cpu0_STLB AVERAGE MISS LATENCY: 56.65 cycles

DRAM Statistics

Channel 0 RQ ROW_BUFFER_HIT:     215787
  ROW_BUFFER_MISS:     705147
 AVG DBUS CONGESTED CYCLE: 3.951
WQ ROW_BUFFER_HIT: Channel 0 
  ROW_BUFFER_MISS:      21142
  FULL:     244844
