WARNING: physical memory size is smaller than virtual memory size.

*** ChampSim Multicore Out-of-Order Simulator ***
Warmup Instructions: 20000000
Simulation Instructions: 100000000
Number of CPUs: 1
Page size: 4096

Off-chip DRAM Size: 4 GiB Channels: 1 Width: 64-bit Data Race: 3200 MT/s
Heartbeat CPU 0 instructions: 10000004 cycles: 2511547 heartbeat IPC: 3.982 cumulative IPC: 3.982 (Simulation time: 00 hr 00 min 24 sec)
Heartbeat CPU 0 instructions: 20000001 cycles: 5066590 heartbeat IPC: 3.914 cumulative IPC: 3.947 (Simulation time: 00 hr 00 min 48 sec)
Warmup finished CPU 0 instructions: 20000001 cycles: 5066591 cumulative IPC: 3.947 (Simulation time: 00 hr 00 min 48 sec)
Warmup complete CPU 0 instructions: 20000001 cycles: 5066591 cumulative IPC: 3.947 (Simulation time: 00 hr 00 min 48 sec)
Heartbeat CPU 0 instructions: 30000002 cycles: 15798718 heartbeat IPC: 0.9318 cumulative IPC: 0.9318 (Simulation time: 00 hr 02 min 03 sec)
Heartbeat CPU 0 instructions: 40000001 cycles: 26402653 heartbeat IPC: 0.943 cumulative IPC: 0.9374 (Simulation time: 00 hr 03 min 21 sec)
Heartbeat CPU 0 instructions: 50000002 cycles: 36726752 heartbeat IPC: 0.9686 cumulative IPC: 0.9476 (Simulation time: 00 hr 04 min 36 sec)
Heartbeat CPU 0 instructions: 60000002 cycles: 43707259 heartbeat IPC: 1.433 cumulative IPC: 1.035 (Simulation time: 00 hr 05 min 35 sec)
Heartbeat CPU 0 instructions: 70000003 cycles: 54522653 heartbeat IPC: 0.9246 cumulative IPC: 1.011 (Simulation time: 00 hr 06 min 55 sec)
Heartbeat CPU 0 instructions: 80000000 cycles: 65110864 heartbeat IPC: 0.9444 cumulative IPC: 0.9993 (Simulation time: 00 hr 08 min 18 sec)
Heartbeat CPU 0 instructions: 90000000 cycles: 75518374 heartbeat IPC: 0.9608 cumulative IPC: 0.9936 (Simulation time: 00 hr 09 min 34 sec)
Heartbeat CPU 0 instructions: 100000003 cycles: 82419758 heartbeat IPC: 1.449 cumulative IPC: 1.034 (Simulation time: 00 hr 10 min 33 sec)
Heartbeat CPU 0 instructions: 110000001 cycles: 93352580 heartbeat IPC: 0.9147 cumulative IPC: 1.019 (Simulation time: 00 hr 11 min 53 sec)
Heartbeat CPU 0 instructions: 120000001 cycles: 104058629 heartbeat IPC: 0.9341 cumulative IPC: 1.01 (Simulation time: 00 hr 13 min 30 sec)
Simulation finished CPU 0 instructions: 100000000 cycles: 98992039 cumulative IPC: 1.01 (Simulation time: 00 hr 13 min 30 sec)
Simulation complete CPU 0 instructions: 100000000 cycles: 98992039 cumulative IPC: 1.01 (Simulation time: 00 hr 13 min 30 sec)

ChampSim completed all CPUs

=== Simulation ===
CPU 0 runs cactusADM_734B.trace.xz
Region of Interest Statistics

CPU 0 cumulative IPC: 1.01 instructions: 100000000 cycles: 98992039
CPU 0 Branch Prediction Accuracy: 98.22% MPKI: 0.03738 Average ROB Occupancy at Mispredict: 276.6
Branch type MPKI
BRANCH_DIRECT_JUMP: 0
BRANCH_INDIRECT: 0
BRANCH_CONDITIONAL: 0.0374
BRANCH_DIRECT_CALL: 0
BRANCH_INDIRECT_CALL: 0
BRANCH_RETURN: 0

LLC TOTAL        ACCESS:    1221168 HIT:     268443 MISS:     952725
LLC LOAD         ACCESS:     635426 HIT:        206 MISS:     635220
LLC RFO          ACCESS:     268110 HIT:        182 MISS:     267928
LLC PREFETCH     ACCESS:          0 HIT:          0 MISS:          0
LLC WRITE        ACCESS:     268383 HIT:     268002 MISS:        381
LLC TRANSLATION  ACCESS:      49249 HIT:         53 MISS:      49196
LLC PREFETCH REQUESTED:          0 ISSUED:          0 USEFUL:          0 USELESS:          0
LLC AVERAGE MISS LATENCY: 584.4 cycles
cpu0_DTLB TOTAL        ACCESS:   21304852 HIT:   19245291 MISS:    2059561
cpu0_DTLB LOAD         ACCESS:   21304852 HIT:   19245291 MISS:    2059561
cpu0_DTLB RFO          ACCESS:          0 HIT:          0 MISS:          0
cpu0_DTLB PREFETCH     ACCESS:          0 HIT:          0 MISS:          0
cpu0_DTLB WRITE        ACCESS:          0 HIT:          0 MISS:          0
cpu0_DTLB TRANSLATION  ACCESS:          0 HIT:          0 MISS:          0
cpu0_DTLB PREFETCH REQUESTED:          0 ISSUED:          0 USEFUL:          0 USELESS:          0
cpu0_DTLB AVERAGE MISS LATENCY: 28.13 cycles
cpu0_ITLB TOTAL        ACCESS:   11355396 HIT:   11355396 MISS:          0
cpu0_ITLB LOAD         ACCESS:   11355396 HIT:   11355396 MISS:          0
cpu0_ITLB RFO          ACCESS:          0 HIT:          0 MISS:          0
cpu0_ITLB PREFETCH     ACCESS:          0 HIT:          0 MISS:          0
cpu0_ITLB WRITE        ACCESS:          0 HIT:          0 MISS:          0
cpu0_ITLB TRANSLATION  ACCESS:          0 HIT:          0 MISS:          0
cpu0_ITLB PREFETCH REQUESTED:          0 ISSUED:          0 USEFUL:          0 USELESS:          0
cpu0_ITLB AVERAGE MISS LATENCY: -nan cycles
cpu0_L1D TOTAL        ACCESS:   33275300 HIT:   30355130 MISS:    2920170
cpu0_L1D LOAD         ACCESS:   20608682 HIT:   19357772 MISS:    1250910
cpu0_L1D RFO          ACCESS:          0 HIT:          0 MISS:          0
cpu0_L1D PREFETCH     ACCESS:          0 HIT:          0 MISS:          0
cpu0_L1D WRITE        ACCESS:   11673308 HIT:   10463577 MISS:    1209731
cpu0_L1D TRANSLATION  ACCESS:     993310 HIT:     533781 MISS:     459529
cpu0_L1D PREFETCH REQUESTED:          0 ISSUED:          0 USEFUL:          0 USELESS:          0
cpu0_L1D AVERAGE MISS LATENCY: 182 cycles
cpu0_L1I TOTAL        ACCESS:   16792755 HIT:   16792755 MISS:          0
cpu0_L1I LOAD         ACCESS:   16792755 HIT:   16792755 MISS:          0
cpu0_L1I RFO          ACCESS:          0 HIT:          0 MISS:          0
cpu0_L1I PREFETCH     ACCESS:          0 HIT:          0 MISS:          0
cpu0_L1I WRITE        ACCESS:          0 HIT:          0 MISS:          0
cpu0_L1I TRANSLATION  ACCESS:          0 HIT:          0 MISS:          0
cpu0_L1I PREFETCH REQUESTED:          0 ISSUED:          0 USEFUL:          0 USELESS:          0
cpu0_L1I AVERAGE MISS LATENCY: -nan cycles
cpu0_L2C TOTAL        ACCESS:    2084477 HIT:    1131255 MISS:     953222
cpu0_L2C LOAD         ACCESS:    1080494 HIT:     445068 MISS:     635426
cpu0_L2C RFO          ACCESS:     270118 HIT:       2008 MISS:     268110
cpu0_L2C PREFETCH     ACCESS:          0 HIT:          0 MISS:          0
cpu0_L2C WRITE        ACCESS:     274409 HIT:     273972 MISS:        437
cpu0_L2C TRANSLATION  ACCESS:     459456 HIT:     410207 MISS:      49249
cpu0_L2C PREFETCH REQUESTED:          0 ISSUED:          0 USEFUL:          0 USELESS:          0
cpu0_L2C AVERAGE MISS LATENCY: 605.1 cycles
cpu0_STLB TOTAL        ACCESS:    1592716 HIT:    1059617 MISS:     533099
cpu0_STLB LOAD         ACCESS:    1592716 HIT:    1059617 MISS:     533099
cpu0_STLB RFO          ACCESS:          0 HIT:          0 MISS:          0
cpu0_STLB PREFETCH     ACCESS:          0 HIT:          0 MISS:          0
cpu0_STLB WRITE        ACCESS:          0 HIT:          0 MISS:          0
cpu0_STLB TRANSLATION  ACCESS:          0 HIT:          0 MISS:          0
cpu0_STLB PREFETCH REQUESTED:          0 ISSUED:          0 USEFUL:          0 USELESS:          0
cpu0_STLB AVERAGE MISS LATENCY: 103.7 cycles

DRAM Statistics

Channel 0 RQ ROW_BUFFER_HIT:     133745
  ROW_BUFFER_MISS:     818596
 AVG DBUS CONGESTED CYCLE: 3.963
WQ ROW_BUFFER_HIT: Channel 0 
  ROW_BUFFER_MISS:      15647
  FULL:     250789
