WARNING: physical memory size is smaller than virtual memory size.

*** ChampSim Multicore Out-of-Order Simulator ***
Warmup Instructions: 20000000
Simulation Instructions: 100000000
Number of CPUs: 1
Page size: 4096

Off-chip DRAM Size: 4 GiB Channels: 1 Width: 64-bit Data Race: 3200 MT/s
Heartbeat CPU 0 instructions: 10000004 cycles: 2511552 heartbeat IPC: 3.982 cumulative IPC: 3.982 (Simulation time: 00 hr 00 min 23 sec)
Heartbeat CPU 0 instructions: 20000001 cycles: 5066595 heartbeat IPC: 3.914 cumulative IPC: 3.947 (Simulation time: 00 hr 00 min 48 sec)
Warmup finished CPU 0 instructions: 20000001 cycles: 5066596 cumulative IPC: 3.947 (Simulation time: 00 hr 00 min 48 sec)
Warmup complete CPU 0 instructions: 20000001 cycles: 5066596 cumulative IPC: 3.947 (Simulation time: 00 hr 00 min 48 sec)
Heartbeat CPU 0 instructions: 30000002 cycles: 15858513 heartbeat IPC: 0.9266 cumulative IPC: 0.9266 (Simulation time: 00 hr 01 min 54 sec)
Heartbeat CPU 0 instructions: 40000001 cycles: 26409919 heartbeat IPC: 0.9477 cumulative IPC: 0.9371 (Simulation time: 00 hr 03 min 00 sec)
Heartbeat CPU 0 instructions: 50000002 cycles: 36786285 heartbeat IPC: 0.9637 cumulative IPC: 0.9458 (Simulation time: 00 hr 04 min 06 sec)
Heartbeat CPU 0 instructions: 60000002 cycles: 43775755 heartbeat IPC: 1.431 cumulative IPC: 1.033 (Simulation time: 00 hr 04 min 55 sec)
Heartbeat CPU 0 instructions: 70000003 cycles: 54586744 heartbeat IPC: 0.925 cumulative IPC: 1.01 (Simulation time: 00 hr 06 min 02 sec)
Heartbeat CPU 0 instructions: 80000000 cycles: 65165966 heartbeat IPC: 0.9452 cumulative IPC: 0.9983 (Simulation time: 00 hr 07 min 09 sec)
Heartbeat CPU 0 instructions: 90000000 cycles: 75589718 heartbeat IPC: 0.9593 cumulative IPC: 0.9926 (Simulation time: 00 hr 08 min 16 sec)
Heartbeat CPU 0 instructions: 100000003 cycles: 82485748 heartbeat IPC: 1.45 cumulative IPC: 1.033 (Simulation time: 00 hr 09 min 08 sec)
Heartbeat CPU 0 instructions: 110000001 cycles: 93376065 heartbeat IPC: 0.9182 cumulative IPC: 1.019 (Simulation time: 00 hr 10 min 16 sec)
Heartbeat CPU 0 instructions: 120000001 cycles: 104069513 heartbeat IPC: 0.9352 cumulative IPC: 1.01 (Simulation time: 00 hr 11 min 22 sec)
Simulation finished CPU 0 instructions: 100000000 cycles: 99002918 cumulative IPC: 1.01 (Simulation time: 00 hr 11 min 22 sec)
Simulation complete CPU 0 instructions: 100000000 cycles: 99002918 cumulative IPC: 1.01 (Simulation time: 00 hr 11 min 22 sec)

ChampSim completed all CPUs

=== Simulation ===
CPU 0 runs cactusADM_734B.trace.xz
Region of Interest Statistics

CPU 0 cumulative IPC: 1.01 instructions: 100000000 cycles: 99002918
CPU 0 Branch Prediction Accuracy: 98.22% MPKI: 0.03738 Average ROB Occupancy at Mispredict: 276.6
Branch type MPKI
BRANCH_DIRECT_JUMP: 0
BRANCH_INDIRECT: 0
BRANCH_CONDITIONAL: 0.0374
BRANCH_DIRECT_CALL: 0
BRANCH_INDIRECT_CALL: 0
BRANCH_RETURN: 0

LLC TOTAL        ACCESS:    1221351 HIT:     268516 MISS:     952835
LLC LOAD         ACCESS:     635424 HIT:        299 MISS:     635125
LLC RFO          ACCESS:     268110 HIT:        237 MISS:     267873
LLC PREFETCH     ACCESS:          0 HIT:          0 MISS:          0
LLC WRITE        ACCESS:     268296 HIT:     267922 MISS:        374
LLC TRANSLATION  ACCESS:      49521 HIT:         58 MISS:      49463
LLC PREFETCH REQUESTED:          0 ISSUED:          0 USEFUL:          0 USELESS:          0
LLC AVERAGE MISS LATENCY: 585 cycles
cpu0_DTLB TOTAL        ACCESS:   21308911 HIT:   19247773 MISS:    2061138
cpu0_DTLB LOAD         ACCESS:   21308911 HIT:   19247773 MISS:    2061138
cpu0_DTLB RFO          ACCESS:          0 HIT:          0 MISS:          0
cpu0_DTLB PREFETCH     ACCESS:          0 HIT:          0 MISS:          0
cpu0_DTLB WRITE        ACCESS:          0 HIT:          0 MISS:          0
cpu0_DTLB TRANSLATION  ACCESS:          0 HIT:          0 MISS:          0
cpu0_DTLB PREFETCH REQUESTED:          0 ISSUED:          0 USEFUL:          0 USELESS:          0
cpu0_DTLB AVERAGE MISS LATENCY: 28.07 cycles
cpu0_ITLB TOTAL        ACCESS:   11355255 HIT:   11355255 MISS:          0
cpu0_ITLB LOAD         ACCESS:   11355255 HIT:   11355255 MISS:          0
cpu0_ITLB RFO          ACCESS:          0 HIT:          0 MISS:          0
cpu0_ITLB PREFETCH     ACCESS:          0 HIT:          0 MISS:          0
cpu0_ITLB WRITE        ACCESS:          0 HIT:          0 MISS:          0
cpu0_ITLB TRANSLATION  ACCESS:          0 HIT:          0 MISS:          0
cpu0_ITLB PREFETCH REQUESTED:          0 ISSUED:          0 USEFUL:          0 USELESS:          0
cpu0_ITLB AVERAGE MISS LATENCY: -nan cycles
cpu0_L1D TOTAL        ACCESS:   33278804 HIT:   30356692 MISS:    2922112
cpu0_L1D LOAD         ACCESS:   20612447 HIT:   19360332 MISS:    1252115
cpu0_L1D RFO          ACCESS:          0 HIT:          0 MISS:          0
cpu0_L1D PREFETCH     ACCESS:          0 HIT:          0 MISS:          0
cpu0_L1D WRITE        ACCESS:   11673292 HIT:   10462722 MISS:    1210570
cpu0_L1D TRANSLATION  ACCESS:     993065 HIT:     533638 MISS:     459427
cpu0_L1D PREFETCH REQUESTED:          0 ISSUED:          0 USEFUL:          0 USELESS:          0
cpu0_L1D AVERAGE MISS LATENCY: 181.7 cycles
cpu0_L1I TOTAL        ACCESS:   16792044 HIT:   16792044 MISS:          0
cpu0_L1I LOAD         ACCESS:   16792044 HIT:   16792044 MISS:          0
cpu0_L1I RFO          ACCESS:          0 HIT:          0 MISS:          0
cpu0_L1I PREFETCH     ACCESS:          0 HIT:          0 MISS:          0
cpu0_L1I WRITE        ACCESS:          0 HIT:          0 MISS:          0
cpu0_L1I TRANSLATION  ACCESS:          0 HIT:          0 MISS:          0
cpu0_L1I PREFETCH REQUESTED:          0 ISSUED:          0 USEFUL:          0 USELESS:          0
cpu0_L1I AVERAGE MISS LATENCY: -nan cycles
cpu0_L2C TOTAL        ACCESS:    2084436 HIT:    1130942 MISS:     953494
cpu0_L2C LOAD         ACCESS:    1080517 HIT:     445093 MISS:     635424
cpu0_L2C RFO          ACCESS:     270152 HIT:       2042 MISS:     268110
cpu0_L2C PREFETCH     ACCESS:          0 HIT:          0 MISS:          0
cpu0_L2C WRITE        ACCESS:     274420 HIT:     273981 MISS:        439
cpu0_L2C TRANSLATION  ACCESS:     459347 HIT:     409826 MISS:      49521
cpu0_L2C PREFETCH REQUESTED:          0 ISSUED:          0 USEFUL:          0 USELESS:          0
cpu0_L2C AVERAGE MISS LATENCY: 605.6 cycles
cpu0_STLB TOTAL        ACCESS:    1593817 HIT:    1060760 MISS:     533057
cpu0_STLB LOAD         ACCESS:    1593817 HIT:    1060760 MISS:     533057
cpu0_STLB RFO          ACCESS:          0 HIT:          0 MISS:          0
cpu0_STLB PREFETCH     ACCESS:          0 HIT:          0 MISS:          0
cpu0_STLB WRITE        ACCESS:          0 HIT:          0 MISS:          0
cpu0_STLB TRANSLATION  ACCESS:          0 HIT:          0 MISS:          0
cpu0_STLB PREFETCH REQUESTED:          0 ISSUED:          0 USEFUL:          0 USELESS:          0
cpu0_STLB AVERAGE MISS LATENCY: 104.1 cycles

DRAM Statistics

Channel 0 RQ ROW_BUFFER_HIT:     132939
  ROW_BUFFER_MISS:     819516
 AVG DBUS CONGESTED CYCLE: 3.962
WQ ROW_BUFFER_HIT: Channel 0 
  ROW_BUFFER_MISS:      16425
  FULL:     249947
