WARNING: physical memory size is smaller than virtual memory size.

*** ChampSim Multicore Out-of-Order Simulator ***
Warmup Instructions: 20000000
Simulation Instructions: 100000000
Number of CPUs: 1
Page size: 4096

Off-chip DRAM Size: 4 GiB Channels: 1 Width: 64-bit Data Race: 3200 MT/s
Heartbeat CPU 0 instructions: 10000004 cycles: 2512233 heartbeat IPC: 3.981 cumulative IPC: 3.981 (Simulation time: 00 hr 00 min 23 sec)
Heartbeat CPU 0 instructions: 20000001 cycles: 5070535 heartbeat IPC: 3.909 cumulative IPC: 3.944 (Simulation time: 00 hr 00 min 47 sec)
Warmup finished CPU 0 instructions: 20000001 cycles: 5070536 cumulative IPC: 3.944 (Simulation time: 00 hr 00 min 47 sec)
Warmup complete CPU 0 instructions: 20000001 cycles: 5070536 cumulative IPC: 3.944 (Simulation time: 00 hr 00 min 47 sec)
Heartbeat CPU 0 instructions: 30000002 cycles: 15455939 heartbeat IPC: 0.9629 cumulative IPC: 0.9629 (Simulation time: 00 hr 01 min 51 sec)
Heartbeat CPU 0 instructions: 40000001 cycles: 25616297 heartbeat IPC: 0.9842 cumulative IPC: 0.9734 (Simulation time: 00 hr 02 min 53 sec)
Heartbeat CPU 0 instructions: 50000002 cycles: 35574875 heartbeat IPC: 1.004 cumulative IPC: 0.9835 (Simulation time: 00 hr 03 min 55 sec)
Heartbeat CPU 0 instructions: 60000002 cycles: 42417184 heartbeat IPC: 1.461 cumulative IPC: 1.071 (Simulation time: 00 hr 04 min 44 sec)
Heartbeat CPU 0 instructions: 70000003 cycles: 52812238 heartbeat IPC: 0.962 cumulative IPC: 1.047 (Simulation time: 00 hr 05 min 48 sec)
Heartbeat CPU 0 instructions: 80000000 cycles: 63019192 heartbeat IPC: 0.9797 cumulative IPC: 1.035 (Simulation time: 00 hr 06 min 51 sec)
Heartbeat CPU 0 instructions: 90000000 cycles: 72969951 heartbeat IPC: 1.005 cumulative IPC: 1.031 (Simulation time: 00 hr 07 min 53 sec)
Heartbeat CPU 0 instructions: 100000003 cycles: 79727552 heartbeat IPC: 1.48 cumulative IPC: 1.072 (Simulation time: 00 hr 08 min 41 sec)
Heartbeat CPU 0 instructions: 110000001 cycles: 90117303 heartbeat IPC: 0.9625 cumulative IPC: 1.058 (Simulation time: 00 hr 09 min 45 sec)
Heartbeat CPU 0 instructions: 120000001 cycles: 100404265 heartbeat IPC: 0.9721 cumulative IPC: 1.049 (Simulation time: 00 hr 10 min 48 sec)
Simulation finished CPU 0 instructions: 100000000 cycles: 95333730 cumulative IPC: 1.049 (Simulation time: 00 hr 10 min 48 sec)
Simulation complete CPU 0 instructions: 100000000 cycles: 95333730 cumulative IPC: 1.049 (Simulation time: 00 hr 10 min 48 sec)

ChampSim completed all CPUs

=== Simulation ===
CPU 0 runs cactusADM_734B.trace.xz
Region of Interest Statistics

CPU 0 cumulative IPC: 1.049 instructions: 100000000 cycles: 95333730
CPU 0 Branch Prediction Accuracy: 98.22% MPKI: 0.03738 Average ROB Occupancy at Mispredict: 276.6
Branch type MPKI
BRANCH_DIRECT_JUMP: 0
BRANCH_INDIRECT: 0
BRANCH_CONDITIONAL: 0.0374
BRANCH_DIRECT_CALL: 0
BRANCH_INDIRECT_CALL: 0
BRANCH_RETURN: 0

LLC TOTAL        ACCESS:    1198708 HIT:     268207 MISS:     930501
LLC LOAD         ACCESS:     635353 HIT:         10 MISS:     635343
LLC RFO          ACCESS:     268110 HIT:          0 MISS:     268110
LLC PREFETCH     ACCESS:          0 HIT:          0 MISS:          0
LLC WRITE        ACCESS:     268427 HIT:     268137 MISS:        290
LLC TRANSLATION  ACCESS:      26818 HIT:         60 MISS:      26758
LLC PREFETCH REQUESTED:          0 ISSUED:          0 USEFUL:          0 USELESS:          0
LLC AVERAGE MISS LATENCY: 558.4 cycles
cpu0_DTLB TOTAL        ACCESS:   21350854 HIT:   19309028 MISS:    2041826
cpu0_DTLB LOAD         ACCESS:   21350854 HIT:   19309028 MISS:    2041826
cpu0_DTLB RFO          ACCESS:          0 HIT:          0 MISS:          0
cpu0_DTLB PREFETCH     ACCESS:          0 HIT:          0 MISS:          0
cpu0_DTLB WRITE        ACCESS:          0 HIT:          0 MISS:          0
cpu0_DTLB TRANSLATION  ACCESS:          0 HIT:          0 MISS:          0
cpu0_DTLB PREFETCH REQUESTED:          0 ISSUED:          0 USEFUL:          0 USELESS:          0
cpu0_DTLB AVERAGE MISS LATENCY: 23.06 cycles
cpu0_ITLB TOTAL        ACCESS:   11348396 HIT:   11348396 MISS:          0
cpu0_ITLB LOAD         ACCESS:   11348396 HIT:   11348396 MISS:          0
cpu0_ITLB RFO          ACCESS:          0 HIT:          0 MISS:          0
cpu0_ITLB PREFETCH     ACCESS:          0 HIT:          0 MISS:          0
cpu0_ITLB WRITE        ACCESS:          0 HIT:          0 MISS:          0
cpu0_ITLB TRANSLATION  ACCESS:          0 HIT:          0 MISS:          0
cpu0_ITLB PREFETCH REQUESTED:          0 ISSUED:          0 USEFUL:          0 USELESS:          0
cpu0_ITLB AVERAGE MISS LATENCY: -nan cycles
cpu0_L1D TOTAL        ACCESS:   33556961 HIT:   31033409 MISS:    2523552
cpu0_L1D LOAD         ACCESS:   20643654 HIT:   19424196 MISS:    1219458
cpu0_L1D RFO          ACCESS:          0 HIT:          0 MISS:          0
cpu0_L1D PREFETCH     ACCESS:          0 HIT:          0 MISS:          0
cpu0_L1D WRITE        ACCESS:   11673338 HIT:   10454813 MISS:    1218525
cpu0_L1D TRANSLATION  ACCESS:    1239969 HIT:    1154400 MISS:      85569
cpu0_L1D PREFETCH REQUESTED:          0 ISSUED:          0 USEFUL:          0 USELESS:          0
cpu0_L1D AVERAGE MISS LATENCY: 196.2 cycles
cpu0_L1I TOTAL        ACCESS:   16768081 HIT:   16768081 MISS:          0
cpu0_L1I LOAD         ACCESS:   16768081 HIT:   16768081 MISS:          0
cpu0_L1I RFO          ACCESS:          0 HIT:          0 MISS:          0
cpu0_L1I PREFETCH     ACCESS:          0 HIT:          0 MISS:          0
cpu0_L1I WRITE        ACCESS:          0 HIT:          0 MISS:          0
cpu0_L1I TRANSLATION  ACCESS:          0 HIT:          0 MISS:          0
cpu0_L1I PREFETCH REQUESTED:          0 ISSUED:          0 USEFUL:          0 USELESS:          0
cpu0_L1I AVERAGE MISS LATENCY: -nan cycles
cpu0_L2C TOTAL        ACCESS:    1683160 HIT:     752588 MISS:     930572
cpu0_L2C LOAD         ACCESS:    1057871 HIT:     422518 MISS:     635353
cpu0_L2C RFO          ACCESS:     269084 HIT:        974 MISS:     268110
cpu0_L2C PREFETCH     ACCESS:          0 HIT:          0 MISS:          0
cpu0_L2C WRITE        ACCESS:     273229 HIT:     272938 MISS:        291
cpu0_L2C TRANSLATION  ACCESS:      82976 HIT:      56158 MISS:      26818
cpu0_L2C PREFETCH REQUESTED:          0 ISSUED:          0 USEFUL:          0 USELESS:          0
cpu0_L2C AVERAGE MISS LATENCY: 579.3 cycles
cpu0_STLB TOTAL        ACCESS:    1618156 HIT:     975267 MISS:     642889
cpu0_STLB LOAD         ACCESS:    1618156 HIT:     975267 MISS:     642889
cpu0_STLB RFO          ACCESS:          0 HIT:          0 MISS:          0
cpu0_STLB PREFETCH     ACCESS:          0 HIT:          0 MISS:          0
cpu0_STLB WRITE        ACCESS:          0 HIT:          0 MISS:          0
cpu0_STLB TRANSLATION  ACCESS:          0 HIT:          0 MISS:          0
cpu0_STLB PREFETCH REQUESTED:          0 ISSUED:          0 USEFUL:          0 USELESS:          0
cpu0_STLB AVERAGE MISS LATENCY: 61.32 cycles

DRAM Statistics

Channel 0 RQ ROW_BUFFER_HIT:     202546
  ROW_BUFFER_MISS:     727665
 AVG DBUS CONGESTED CYCLE: 3.948
WQ ROW_BUFFER_HIT: Channel 0 
  ROW_BUFFER_MISS:      18975
  FULL:     247097
