WARNING: physical memory size is smaller than virtual memory size.

*** ChampSim Multicore Out-of-Order Simulator ***
Warmup Instructions: 20000000
Simulation Instructions: 100000000
Number of CPUs: 1
Page size: 4096

Off-chip DRAM Size: 4 GiB Channels: 1 Width: 64-bit Data Race: 3200 MT/s
Heartbeat CPU 0 instructions: 10000004 cycles: 2511527 heartbeat IPC: 3.982 cumulative IPC: 3.982 (Simulation time: 00 hr 00 min 23 sec)
Heartbeat CPU 0 instructions: 20000002 cycles: 5067292 heartbeat IPC: 3.913 cumulative IPC: 3.947 (Simulation time: 00 hr 00 min 49 sec)
Warmup finished CPU 0 instructions: 20000002 cycles: 5067293 cumulative IPC: 3.947 (Simulation time: 00 hr 00 min 49 sec)
Warmup complete CPU 0 instructions: 20000002 cycles: 5067293 cumulative IPC: 3.947 (Simulation time: 00 hr 00 min 49 sec)
Heartbeat CPU 0 instructions: 30000002 cycles: 15582708 heartbeat IPC: 0.951 cumulative IPC: 0.951 (Simulation time: 00 hr 02 min 03 sec)
Heartbeat CPU 0 instructions: 40000001 cycles: 25947534 heartbeat IPC: 0.9648 cumulative IPC: 0.9578 (Simulation time: 00 hr 03 min 18 sec)
Heartbeat CPU 0 instructions: 50000002 cycles: 35998581 heartbeat IPC: 0.9949 cumulative IPC: 0.9699 (Simulation time: 00 hr 04 min 32 sec)
Heartbeat CPU 0 instructions: 60000002 cycles: 42952524 heartbeat IPC: 1.438 cumulative IPC: 1.056 (Simulation time: 00 hr 05 min 34 sec)
Heartbeat CPU 0 instructions: 70000003 cycles: 53541867 heartbeat IPC: 0.9443 cumulative IPC: 1.031 (Simulation time: 00 hr 06 min 51 sec)
Heartbeat CPU 0 instructions: 80000000 cycles: 63981607 heartbeat IPC: 0.9579 cumulative IPC: 1.018 (Simulation time: 00 hr 08 min 05 sec)
Heartbeat CPU 0 instructions: 90000000 cycles: 74103488 heartbeat IPC: 0.988 cumulative IPC: 1.014 (Simulation time: 00 hr 09 min 17 sec)
Heartbeat CPU 0 instructions: 100000003 cycles: 80932888 heartbeat IPC: 1.464 cumulative IPC: 1.054 (Simulation time: 00 hr 10 min 15 sec)
Heartbeat CPU 0 instructions: 110000001 cycles: 91524783 heartbeat IPC: 0.9441 cumulative IPC: 1.041 (Simulation time: 00 hr 11 min 38 sec)
Heartbeat CPU 0 instructions: 120000000 cycles: 101976135 heartbeat IPC: 0.9568 cumulative IPC: 1.032 (Simulation time: 00 hr 13 min 10 sec)
Simulation finished CPU 0 instructions: 100000003 cycles: 96908844 cumulative IPC: 1.032 (Simulation time: 00 hr 13 min 10 sec)
Simulation complete CPU 0 instructions: 100000003 cycles: 96908844 cumulative IPC: 1.032 (Simulation time: 00 hr 13 min 10 sec)

ChampSim completed all CPUs

=== Simulation ===
CPU 0 runs cactusADM_734B.trace.xz
Region of Interest Statistics

CPU 0 cumulative IPC: 1.032 instructions: 100000003 cycles: 96908844
CPU 0 Branch Prediction Accuracy: 98.22% MPKI: 0.03738 Average ROB Occupancy at Mispredict: 276.3
Branch type MPKI
BRANCH_DIRECT_JUMP: 0
BRANCH_INDIRECT: 0
BRANCH_CONDITIONAL: 0.0374
BRANCH_DIRECT_CALL: 0
BRANCH_INDIRECT_CALL: 0
BRANCH_RETURN: 0

LLC TOTAL        ACCESS:    1209135 HIT:     268189 MISS:     940946
LLC LOAD         ACCESS:     635367 HIT:        128 MISS:     635239
LLC RFO          ACCESS:     268110 HIT:         68 MISS:     268042
LLC PREFETCH     ACCESS:          0 HIT:          0 MISS:          0
LLC WRITE        ACCESS:     268279 HIT:     267972 MISS:        307
LLC TRANSLATION  ACCESS:      37379 HIT:         21 MISS:      37358
LLC PREFETCH REQUESTED:          0 ISSUED:          0 USEFUL:          0 USELESS:          0
LLC AVERAGE MISS LATENCY: 566.8 cycles
cpu0_DTLB TOTAL        ACCESS:   21358755 HIT:   19322679 MISS:    2036076
cpu0_DTLB LOAD         ACCESS:   21358755 HIT:   19322679 MISS:    2036076
cpu0_DTLB RFO          ACCESS:          0 HIT:          0 MISS:          0
cpu0_DTLB PREFETCH     ACCESS:          0 HIT:          0 MISS:          0
cpu0_DTLB WRITE        ACCESS:          0 HIT:          0 MISS:          0
cpu0_DTLB TRANSLATION  ACCESS:          0 HIT:          0 MISS:          0
cpu0_DTLB PREFETCH REQUESTED:          0 ISSUED:          0 USEFUL:          0 USELESS:          0
cpu0_DTLB AVERAGE MISS LATENCY: 25.24 cycles
cpu0_ITLB TOTAL        ACCESS:   11353989 HIT:   11353989 MISS:          0
cpu0_ITLB LOAD         ACCESS:   11353989 HIT:   11353989 MISS:          0
cpu0_ITLB RFO          ACCESS:          0 HIT:          0 MISS:          0
cpu0_ITLB PREFETCH     ACCESS:          0 HIT:          0 MISS:          0
cpu0_ITLB WRITE        ACCESS:          0 HIT:          0 MISS:          0
cpu0_ITLB TRANSLATION  ACCESS:          0 HIT:          0 MISS:          0
cpu0_ITLB PREFETCH REQUESTED:          0 ISSUED:          0 USEFUL:          0 USELESS:          0
cpu0_ITLB AVERAGE MISS LATENCY: -nan cycles
cpu0_L1D TOTAL        ACCESS:   33495605 HIT:   30877752 MISS:    2617853
cpu0_L1D LOAD         ACCESS:   20667808 HIT:   19442651 MISS:    1225157
cpu0_L1D RFO          ACCESS:          0 HIT:          0 MISS:          0
cpu0_L1D PREFETCH     ACCESS:          0 HIT:          0 MISS:          0
cpu0_L1D WRITE        ACCESS:   11673320 HIT:   10455245 MISS:    1218075
cpu0_L1D TRANSLATION  ACCESS:    1154477 HIT:     979856 MISS:     174621
cpu0_L1D PREFETCH REQUESTED:          0 ISSUED:          0 USEFUL:          0 USELESS:          0
cpu0_L1D AVERAGE MISS LATENCY: 194.9 cycles
cpu0_L1I TOTAL        ACCESS:   16771014 HIT:   16771014 MISS:          0
cpu0_L1I LOAD         ACCESS:   16771014 HIT:   16771014 MISS:          0
cpu0_L1I RFO          ACCESS:          0 HIT:          0 MISS:          0
cpu0_L1I PREFETCH     ACCESS:          0 HIT:          0 MISS:          0
cpu0_L1I WRITE        ACCESS:          0 HIT:          0 MISS:          0
cpu0_L1I TRANSLATION  ACCESS:          0 HIT:          0 MISS:          0
cpu0_L1I PREFETCH REQUESTED:          0 ISSUED:          0 USEFUL:          0 USELESS:          0
cpu0_L1I AVERAGE MISS LATENCY: -nan cycles
cpu0_L2C TOTAL        ACCESS:    1783702 HIT:     842508 MISS:     941194
cpu0_L2C LOAD         ACCESS:    1063706 HIT:     428339 MISS:     635367
cpu0_L2C RFO          ACCESS:     271567 HIT:       3457 MISS:     268110
cpu0_L2C PREFETCH     ACCESS:          0 HIT:          0 MISS:          0
cpu0_L2C WRITE        ACCESS:     276077 HIT:     275739 MISS:        338
cpu0_L2C TRANSLATION  ACCESS:     172352 HIT:     134973 MISS:      37379
cpu0_L2C PREFETCH REQUESTED:          0 ISSUED:          0 USEFUL:          0 USELESS:          0
cpu0_L2C AVERAGE MISS LATENCY: 587.6 cycles
cpu0_STLB TOTAL        ACCESS:    1603212 HIT:     993506 MISS:     609706
cpu0_STLB LOAD         ACCESS:    1603212 HIT:     993506 MISS:     609706
cpu0_STLB RFO          ACCESS:          0 HIT:          0 MISS:          0
cpu0_STLB PREFETCH     ACCESS:          0 HIT:          0 MISS:          0
cpu0_STLB WRITE        ACCESS:          0 HIT:          0 MISS:          0
cpu0_STLB TRANSLATION  ACCESS:          0 HIT:          0 MISS:          0
cpu0_STLB PREFETCH REQUESTED:          0 ISSUED:          0 USEFUL:          0 USELESS:          0
cpu0_STLB AVERAGE MISS LATENCY: 75.07 cycles

DRAM Statistics

Channel 0 RQ ROW_BUFFER_HIT:     174902
  ROW_BUFFER_MISS:     765737
 AVG DBUS CONGESTED CYCLE: 3.953
WQ ROW_BUFFER_HIT: Channel 0 
  ROW_BUFFER_MISS:      17483
  FULL:     248511
