WARNING: physical memory size is smaller than virtual memory size.

*** ChampSim Multicore Out-of-Order Simulator ***
Warmup Instructions: 20000000
Simulation Instructions: 100000000
Number of CPUs: 1
Page size: 4096

Off-chip DRAM Size: 4 GiB Channels: 1 Width: 64-bit Data Race: 3200 MT/s
Heartbeat CPU 0 instructions: 10000004 cycles: 2513844 heartbeat IPC: 3.978 cumulative IPC: 3.978 (Simulation time: 00 hr 00 min 23 sec)
Heartbeat CPU 0 instructions: 20000000 cycles: 5080665 heartbeat IPC: 3.896 cumulative IPC: 3.936 (Simulation time: 00 hr 00 min 47 sec)
Warmup finished CPU 0 instructions: 20000000 cycles: 5080666 cumulative IPC: 3.936 (Simulation time: 00 hr 00 min 47 sec)
Warmup complete CPU 0 instructions: 20000000 cycles: 5080666 cumulative IPC: 3.936 (Simulation time: 00 hr 00 min 47 sec)
Heartbeat CPU 0 instructions: 30000002 cycles: 15234683 heartbeat IPC: 0.9848 cumulative IPC: 0.9848 (Simulation time: 00 hr 01 min 50 sec)
Heartbeat CPU 0 instructions: 40000001 cycles: 25278537 heartbeat IPC: 0.9956 cumulative IPC: 0.9902 (Simulation time: 00 hr 02 min 52 sec)
Heartbeat CPU 0 instructions: 50000002 cycles: 35008895 heartbeat IPC: 1.028 cumulative IPC: 1.002 (Simulation time: 00 hr 03 min 54 sec)
Heartbeat CPU 0 instructions: 60000002 cycles: 41845895 heartbeat IPC: 1.463 cumulative IPC: 1.088 (Simulation time: 00 hr 04 min 43 sec)
Heartbeat CPU 0 instructions: 70000003 cycles: 52091878 heartbeat IPC: 0.976 cumulative IPC: 1.064 (Simulation time: 00 hr 05 min 46 sec)
Heartbeat CPU 0 instructions: 80000000 cycles: 62212106 heartbeat IPC: 0.9881 cumulative IPC: 1.05 (Simulation time: 00 hr 06 min 50 sec)
Heartbeat CPU 0 instructions: 90000000 cycles: 72035478 heartbeat IPC: 1.018 cumulative IPC: 1.045 (Simulation time: 00 hr 07 min 52 sec)
Heartbeat CPU 0 instructions: 100000003 cycles: 78737578 heartbeat IPC: 1.492 cumulative IPC: 1.086 (Simulation time: 00 hr 08 min 43 sec)
Heartbeat CPU 0 instructions: 110000001 cycles: 89044936 heartbeat IPC: 0.9702 cumulative IPC: 1.072 (Simulation time: 00 hr 09 min 53 sec)
Heartbeat CPU 0 instructions: 120000000 cycles: 99247115 heartbeat IPC: 0.9802 cumulative IPC: 1.062 (Simulation time: 00 hr 10 min 59 sec)
Simulation finished CPU 0 instructions: 100000000 cycles: 94166450 cumulative IPC: 1.062 (Simulation time: 00 hr 10 min 59 sec)
Simulation complete CPU 0 instructions: 100000000 cycles: 94166450 cumulative IPC: 1.062 (Simulation time: 00 hr 10 min 59 sec)

ChampSim completed all CPUs

=== Simulation ===
CPU 0 runs cactusADM_734B.trace.xz
Region of Interest Statistics

CPU 0 cumulative IPC: 1.062 instructions: 100000000 cycles: 94166450
CPU 0 Branch Prediction Accuracy: 98.22% MPKI: 0.03738 Average ROB Occupancy at Mispredict: 276.8
Branch type MPKI
BRANCH_DIRECT_JUMP: 0
BRANCH_INDIRECT: 0
BRANCH_CONDITIONAL: 0.0374
BRANCH_DIRECT_CALL: 0
BRANCH_INDIRECT_CALL: 0
BRANCH_RETURN: 0

LLC TOTAL        ACCESS:    1189422 HIT:     268126 MISS:     921296
LLC LOAD         ACCESS:     635342 HIT:         20 MISS:     635322
LLC RFO          ACCESS:     268104 HIT:          0 MISS:     268104
LLC PREFETCH     ACCESS:          0 HIT:          0 MISS:          0
LLC WRITE        ACCESS:     268273 HIT:     267976 MISS:        297
LLC TRANSLATION  ACCESS:      17703 HIT:        130 MISS:      17573
LLC PREFETCH REQUESTED:          0 ISSUED:          0 USEFUL:          0 USELESS:          0
LLC AVERAGE MISS LATENCY: 549.7 cycles
cpu0_DTLB TOTAL        ACCESS:   21303662 HIT:   19260973 MISS:    2042689
cpu0_DTLB LOAD         ACCESS:   21303662 HIT:   19260973 MISS:    2042689
cpu0_DTLB RFO          ACCESS:          0 HIT:          0 MISS:          0
cpu0_DTLB PREFETCH     ACCESS:          0 HIT:          0 MISS:          0
cpu0_DTLB WRITE        ACCESS:          0 HIT:          0 MISS:          0
cpu0_DTLB TRANSLATION  ACCESS:          0 HIT:          0 MISS:          0
cpu0_DTLB PREFETCH REQUESTED:          0 ISSUED:          0 USEFUL:          0 USELESS:          0
cpu0_DTLB AVERAGE MISS LATENCY: 21.54 cycles
cpu0_ITLB TOTAL        ACCESS:   11381823 HIT:   11381823 MISS:          0
cpu0_ITLB LOAD         ACCESS:   11381823 HIT:   11381823 MISS:          0
cpu0_ITLB RFO          ACCESS:          0 HIT:          0 MISS:          0
cpu0_ITLB PREFETCH     ACCESS:          0 HIT:          0 MISS:          0
cpu0_ITLB WRITE        ACCESS:          0 HIT:          0 MISS:          0
cpu0_ITLB TRANSLATION  ACCESS:          0 HIT:          0 MISS:          0
cpu0_ITLB PREFETCH REQUESTED:          0 ISSUED:          0 USEFUL:          0 USELESS:          0
cpu0_ITLB AVERAGE MISS LATENCY: -nan cycles
cpu0_L1D TOTAL        ACCESS:   33840799 HIT:   31359787 MISS:    2481012
cpu0_L1D LOAD         ACCESS:   20511124 HIT:   19294806 MISS:    1216318
cpu0_L1D RFO          ACCESS:          0 HIT:          0 MISS:          0
cpu0_L1D PREFETCH     ACCESS:          0 HIT:          0 MISS:          0
cpu0_L1D WRITE        ACCESS:   11673304 HIT:   10443492 MISS:    1229812
cpu0_L1D TRANSLATION  ACCESS:    1656371 HIT:    1621489 MISS:      34882
cpu0_L1D PREFETCH REQUESTED:          0 ISSUED:          0 USEFUL:          0 USELESS:          0
cpu0_L1D AVERAGE MISS LATENCY: 194.3 cycles
cpu0_L1I TOTAL        ACCESS:   16800326 HIT:   16800326 MISS:          0
cpu0_L1I LOAD         ACCESS:   16800326 HIT:   16800326 MISS:          0
cpu0_L1I RFO          ACCESS:          0 HIT:          0 MISS:          0
cpu0_L1I PREFETCH     ACCESS:          0 HIT:          0 MISS:          0
cpu0_L1I WRITE        ACCESS:          0 HIT:          0 MISS:          0
cpu0_L1I TRANSLATION  ACCESS:          0 HIT:          0 MISS:          0
cpu0_L1I PREFETCH REQUESTED:          0 ISSUED:          0 USEFUL:          0 USELESS:          0
cpu0_L1I AVERAGE MISS LATENCY: -nan cycles
cpu0_L2C TOTAL        ACCESS:    1633736 HIT:     712288 MISS:     921448
cpu0_L2C LOAD         ACCESS:    1058918 HIT:     423576 MISS:     635342
cpu0_L2C RFO          ACCESS:     268139 HIT:         35 MISS:     268104
cpu0_L2C PREFETCH     ACCESS:          0 HIT:          0 MISS:          0
cpu0_L2C WRITE        ACCESS:     271992 HIT:     271693 MISS:        299
cpu0_L2C TRANSLATION  ACCESS:      34687 HIT:      16984 MISS:      17703
cpu0_L2C PREFETCH REQUESTED:          0 ISSUED:          0 USEFUL:          0 USELESS:          0
cpu0_L2C AVERAGE MISS LATENCY: 570.6 cycles
cpu0_STLB TOTAL        ACCESS:    1625377 HIT:    1008297 MISS:     617080
cpu0_STLB LOAD         ACCESS:    1625377 HIT:    1008297 MISS:     617080
cpu0_STLB RFO          ACCESS:          0 HIT:          0 MISS:          0
cpu0_STLB PREFETCH     ACCESS:          0 HIT:          0 MISS:          0
cpu0_STLB WRITE        ACCESS:          0 HIT:          0 MISS:          0
cpu0_STLB TRANSLATION  ACCESS:          0 HIT:          0 MISS:          0
cpu0_STLB PREFETCH REQUESTED:          0 ISSUED:          0 USEFUL:          0 USELESS:          0
cpu0_STLB AVERAGE MISS LATENCY: 56.72 cycles

DRAM Statistics

Channel 0 RQ ROW_BUFFER_HIT:     216559
  ROW_BUFFER_MISS:     704438
 AVG DBUS CONGESTED CYCLE: 3.951
WQ ROW_BUFFER_HIT: Channel 0 
  ROW_BUFFER_MISS:      20808
  FULL:     245036
